*Heading
** Job name: Lbracket_3D_Size_1_5 Model name: Lbracket_3D_1_5
** Generated by: Abaqus/CAE 2022
*Preprint, echo=NO, model=NO, history=NO, contact=NO
**
** PARTS
**
*Part, name=PART-1
*Node
      1,          45.,           0.,          15.
      2,          45.,          1.5,          15.
      3,          45.,           3.,          15.
      4,          45.,          4.5,          15.
      5,          45.,           6.,          15.
      6,          45.,          7.5,          15.
      7,          45.,           9.,          15.
      8,          45.,         10.5,          15.
      9,          45.,          12.,          15.
     10,          45.,         13.5,          15.
     11,          45.,          15.,          15.
     12,         43.5,          15.,          15.
     13,          42.,          15.,          15.
     14,         40.5,          15.,          15.
     15,          39.,          15.,          15.
     16,         37.5,          15.,          15.
     17,          36.,          15.,          15.
     18,         34.5,          15.,          15.
     19,          33.,          15.,          15.
     20,         31.5,          15.,          15.
** ... 6151 like lines cut
*Element, type=C3D8
 501,  560,   12,   11,   10,  562,  563,  564,  565
 502,  562,  563,  564,  565,  566,  567,  568,  569
 503,  566,  567,  568,  569,  570,  571,  572,  573
 504,  570,  571,  572,  573,  574,  575,  576,  577
 505,  574,  575,  576,  577,  578,  579,  580,  581
 506,  578,  579,  580,  581,  582,  583,  584,  585
 507,  582,  583,  584,  585,  586,  587,  588,  589
 508,  586,  587,  588,  589,  590,  591,  592,  593
 509,  590,  591,  592,  593,  594,  595,  596,  597
 510,  594,  595,  596,  597,  598,  599,  600,  601
 511,   52,   51,   50,  561,  602,  603,  604,  605
 512,  602,  603,  604,  605,  606,  607,  608,  609
 513,  606,  607,  608,  609,  610,  611,  612,  613
 514,  610,  611,  612,  613,  614,  615,  616,  617
 515,  614,  615,  616,  617,  618,  619,  620,  621
 516,  618,  619,  620,  621,  622,  623,  624,  625
 517,  622,  623,  624,  625,  626,  627,  628,  629
 518,  626,  627,  628,  629,  630,  631,  632,  633
 519,  630,  631,  632,  633,  634,  635,  636,  637
 520,  634,  635,  636,  637,  638,  639,  640,  641
** ... 4980 like lines cut
*Elset, elset=_PickedSet2, internal, generate
  501,  5500,     1
** Section: Section-1
*Solid Section, elset=_PickedSet2, material=Material-1
,
*End Part
**  
**
** ASSEMBLY
**
*Assembly, name=Assembly
**  
*Instance, name=PART-1-1, part=PART-1
*End Instance
**  
*Nset, nset=Right, instance=PART-1-1
  11,  12,  13,  14, 563, 564, 567, 568, 571, 572, 575, 576, 579, 580, 583, 584
 587, 588, 591, 592, 595, 596, 599, 600, 663, 665, 667, 669, 671, 673, 675, 677
 679, 681, 753, 755, 757, 759, 761, 763, 765, 767, 769, 771
*Nset, nset=TOP, instance=PART-1-1
   51,   52,   53,   54,   55,   56,   57,   58,   59,   60,   61,  602,  603,  606,  607,  610
  611,  614,  615,  618,  619,  622,  623,  626,  627,  630,  631,  634,  635,  638,  639,  682
  684,  686,  688,  690,  692,  694,  696,  698,  700,  772,  774,  776,  778,  780,  782,  784
  786,  788,  790,  882,  884,  886,  888,  890,  892,  894,  896,  898,  900, 1022, 1024, 1026
 1028, 1030, 1032, 1034, 1036, 1038, 1040, 1182, 1184, 1186, 1188, 1190, 1192, 1194, 1196, 1198
 1200, 1352, 1354, 1356, 1358, 1360, 1362, 1364, 1366, 1368, 1370, 1522, 1524, 1526, 1528, 1530
 1532, 1534, 1536, 1538, 1540, 1772, 1774, 1776, 1778, 1780, 1782, 1784, 1786, 1788, 1790, 1942
 1944, 1946, 1948, 1950, 1952, 1954, 1956, 1958, 1960
*End Assembly
** 
** MATERIALS
** 
*Material, name=Material-1
*Elastic
106000., 0.31
** ----------------------------------------------------------------
** 
** STEP: Step-1
** 
*Step, name=Step-1, nlgeom=NO
*Static
1., 1., 1e-05, 1.
** 
** BOUNDARY CONDITIONS
** 
** Name: BC-1 Type: Symmetry/Antisymmetry/Encastre
*Boundary
TOP, ENCASTRE
** 
** LOADS
** 
** Name: Load-1   Type: Concentrated force
*Cload
Right, 2, -20.
** 
** OUTPUT REQUESTS
** 
*Restart, write, frequency=0
** 
** FIELD OUTPUT: F-Output-1
** 
*Output, field, variable=PRESELECT
** 
** HISTORY OUTPUT: H-Output-1
** 
*Output, history, variable=PRESELECT
*End Step
