*Heading
** Job name: Lbracket_3D_Size_1_0 Model name: Lbracket_3D_1_0
** Generated by: Abaqus/CAE 2022
*Preprint, echo=NO, model=NO, history=NO, contact=NO
**
** PARTS
**
*Part, name=PART-1
*Node
      1,           0.,           0.,           0.
      2,           0.,           0.,           1.
      3,           0.,           0.,           2.
      4,           0.,           0.,           3.
      5,           0.,           0.,           4.
      6,           0.,           0.,           5.
      7,           0.,           0.,           6.
      8,           0.,           0.,           7.
      9,           0.,           0.,           8.
     10,           0.,           0.,           9.
     11,           0.,           0.,          10.
     12,           0.,           0.,          11.
     13,           0.,           0.,          12.
     14,           0.,           0.,          13.
     15,           0.,           0.,          14.
     16,           0.,           1.,           0.
     17,           0.,           1.,           1.
     18,           0.,           1.,           2.
     19,           0.,           1.,           3.
     20,           0.,           1.,           4.
** ... 19436 like lines cut
*Element, type=C3D8
    1, 19441, 19442, 18241, 19440, 18240, 18239, 18238, 18237
    2, 18240, 18239, 18238, 18237, 18236, 18235, 18234, 18233
    3, 18236, 18235, 18234, 18233, 18232, 18231, 18230, 18229
    4, 18232, 18231, 18230, 18229, 18228, 18227, 18226, 18225
    5, 18228, 18227, 18226, 18225, 18224, 18223, 18222, 18221
    6, 18224, 18223, 18222, 18221, 18220, 18219, 18218, 18217
    7, 18220, 18219, 18218, 18217, 18216, 18215, 18214, 18213
    8, 18216, 18215, 18214, 18213, 18212, 18211, 18210, 18209
    9, 18212, 18211, 18210, 18209, 18208, 18207, 18206, 18205
   10, 18208, 18207, 18206, 18205, 18204, 18203, 18202, 18201
   11, 18204, 18203, 18202, 18201, 18200, 18199, 18198, 18197
   12, 18200, 18199, 18198, 18197, 18196, 18195, 18194, 18193
   13, 18196, 18195, 18194, 18193, 18192, 18191, 18190, 18189
   14, 18192, 18191, 18190, 18189, 18188, 18187, 18186, 18185
   15, 18188, 18187, 18186, 18185, 18184, 18183, 18182, 18181
   16, 19382, 18242, 19380, 19381, 18180, 18179, 18178, 18177
   17, 18180, 18179, 18178, 18177, 18176, 18175, 18174, 18173
   18, 18176, 18175, 18174, 18173, 18172, 18171, 18170, 18169
   19, 18172, 18171, 18170, 18169, 18168, 18167, 18166, 18165
   20, 18168, 18167, 18166, 18165, 18164, 18163, 18162, 18161
** ... 16855 like lines cut
*Elset, elset=_PickedSet2, internal, generate
     1,  16875,      1
** Section: Section-1
*Solid Section, elset=_PickedSet2, material=Material-1
,
*End Part
**  
**
** ASSEMBLY
**
*Assembly, name=Assembly
**  
*Instance, name=PART-1-1, part=PART-1
*End Instance
**  
*Nset, nset=Right, instance=PART-1-1
 17926, 17928, 17930, 17932, 17934, 17936, 17938, 17940, 17942, 17944, 17946, 17948, 17950, 17952, 17954, 18091
 18093, 18095, 18097, 18099, 18101, 18103, 18105, 18107, 18109, 18111, 18113, 18115, 18117, 18119, 18181, 18184
 18185, 18188, 18189, 18192, 18193, 18196, 18197, 18200, 18201, 18204, 18205, 18208, 18209, 18212, 18213, 18216
 18217, 18220, 18221, 18224, 18225, 18228, 18229, 18232, 18233, 18236, 18237, 18240, 19438, 19439, 19440, 19441
*Nset, nset=TOP, instance=PART-1-1
 13756, 13758, 13760, 13762, 13764, 13766, 13768, 13770, 13772, 13774, 13776, 13778, 13780, 13782, 13784, 14251
 14253, 14255, 14257, 14259, 14261, 14263, 14265, 14267, 14269, 14271, 14273, 14275, 14277, 14279, 14746, 14748
 14750, 14752, 14754, 14756, 14758, 14760, 14762, 14764, 14766, 14768, 14770, 14772, 14774, 15241, 15243, 15245
 15247, 15249, 15251, 15253, 15255, 15257, 15259, 15261, 15263, 15265, 15267, 15269, 15691, 15693, 15695, 15697
 15699, 15701, 15703, 15705, 15707, 15709, 15711, 15713, 15715, 15717, 15719, 16006, 16008, 16010, 16012, 16014
 16016, 16018, 16020, 16022, 16024, 16026, 16028, 16030, 16032, 16034, 16396, 16398, 16400, 16402, 16404, 16406
 16408, 16410, 16412, 16414, 16416, 16418, 16420, 16422, 16424, 16711, 16713, 16715, 16717, 16719, 16721, 16723
 16725, 16727, 16729, 16731, 16733, 16735, 16737, 16739, 16982, 16984, 16986, 16988, 16990, 16992, 16994, 16996
 16998, 17000, 17002, 17004, 17006, 17008, 17010, 17312, 17314, 17316, 17318, 17320, 17322, 17324, 17326, 17328
 17330, 17332, 17334, 17336, 17338, 17340, 17537, 17539, 17541, 17543, 17545, 17547, 17549, 17551, 17553, 17555
 17557, 17559, 17561, 17563, 17565, 17731, 17733, 17735, 17737, 17739, 17741, 17743, 17745, 17747, 17749, 17751
 17753, 17755, 17757, 17759, 17896, 17898, 17900, 17902, 17904, 17906, 17908, 17910, 17912, 17914, 17916, 17918
 17920, 17922, 17924, 18031, 18033, 18035, 18037, 18039, 18041, 18043, 18045, 18047, 18049, 18051, 18053, 18055
 18057, 18059, 18121, 18122, 18125, 18126, 18129, 18130, 18133, 18134, 18137, 18138, 18141, 18142, 18145, 18146
 18149, 18150, 18153, 18154, 18157, 18158, 18161, 18162, 18165, 18166, 18169, 18170, 18173, 18174, 18177, 18178
 19366, 19367, 19368, 19369, 19370, 19371, 19372, 19373, 19374, 19375, 19376, 19377, 19378, 19379, 19380, 19381
*End Assembly
** 
** MATERIALS
** 
*Material, name=Material-1
*Elastic
106000., 0.31
** ----------------------------------------------------------------
** 
** STEP: Step-1
** 
*Step, name=Step-1, nlgeom=NO
*Static
1., 1., 1e-05, 1.
** 
** BOUNDARY CONDITIONS
** 
** Name: BC-1 Type: Symmetry/Antisymmetry/Encastre
*Boundary
TOP, ENCASTRE
** 
** LOADS
** 
** Name: Load-1   Type: Concentrated force
*Cload
Right, 2, -20.
** 
** OUTPUT REQUESTS
** 
*Restart, write, frequency=0
** 
** FIELD OUTPUT: F-Output-1
** 
*Output, field, variable=PRESELECT
** 
** HISTORY OUTPUT: H-Output-1
** 
*Output, history, variable=PRESELECT
*End Step
