*Heading
** Job name: Vframe_3D_Size_1_5 Model name: Vframe_3D_Size_1_5
** Generated by: Abaqus/CAE 2022
*Preprint, echo=NO, model=NO, history=NO, contact=NO
**
** PARTS
**
*Part, name=PART-1
*Node
      1,   76.8557434,   27.7787514,           0.
      2,   76.8557434,   27.7787514,   1.53846157
      3,   76.8557434,   27.7787514,   3.07692313
      4,   76.8557434,   27.7787514,   4.61538458
      5,   76.8557434,   27.7787514,   6.15384626
      6,   76.8557434,   27.7787514,   7.69230747
      7,   76.8557434,   27.7787514,   9.23076916
      8,   76.8557434,   27.7787514,   10.7692308
      9,   76.8557434,   27.7787514,   12.3076925
     10,   76.8557434,   27.7787514,   13.8461542
     11,   76.8557434,   27.7787514,   15.3846149
     12,   76.8557434,   27.7787514,   16.9230766
     13,   76.8557434,   27.7787514,   18.4615383
     14,         120.,          24.,           0.
     15,         120.,          24.,   1.53846157
     16,         120.,          24.,   3.07692313
     17,         120.,          24.,   4.61538458
     18,         120.,          24.,   6.15384626
     19,         120.,          24.,   7.69230747
     20,         120.,          24.,   9.23076916
** ... 36982 like lines cut
*Element, type=C3D8
    1,  2446, 10805,  3879,   704,  2445, 10804,  3876,   703
    2,  2447, 10806,  3882,   705,  2446, 10805,  3879,   704
    3,  2448, 10807,  3885,   706,  2447, 10806,  3882,   705
    4,  2449, 10808,  3888,   707,  2448, 10807,  3885,   706
    5,  2450, 10809,  3891,   708,  2449, 10808,  3888,   707
    6,  2451, 10810,  3894,   709,  2450, 10809,  3891,   708
    7,  2452, 10811,  3897,   710,  2451, 10810,  3894,   709
    8,  2453, 10812,  3900,   711,  2452, 10811,  3897,   710
    9,  2454, 10813,  3903,   712,  2453, 10812,  3900,   711
   10,  2455, 10814,  3906,   713,  2454, 10813,  3903,   712
   11,  2456, 10815,  3909,   714,  2455, 10814,  3906,   713
   12,  2457, 10816,  3912,   715,  2456, 10815,  3909,   714
   13, 17723, 17752, 17775, 17748,  2457, 10816,  3912,   715
   14, 10975, 16218,  1005,  3785, 10973, 16214,  1003,  3784
   15, 10977, 16222,  1007,  3786, 10975, 16218,  1005,  3785
   16, 10979, 16226,  1009,  3787, 10977, 16222,  1007,  3786
   17, 10981, 16230,  1011,  3788, 10979, 16226,  1009,  3787
   18, 10983, 16234,  1013,  3789, 10981, 16230,  1011,  3788
   19, 10985, 16238,  1015,  3790, 10983, 16234,  1013,  3789
   20, 10987, 16242,  1017,  3791, 10985, 16238,  1015,  3790
** ... 32714 like lines cut
*End Part
**  
**
** ASSEMBLY
**
*Assembly, name=Assembly
**  
*Instance, name=PART-1-1, part=PART-1
*End Instance
**  
*End Assembly
** 
** MATERIALS
** 
*Material, name=Material-1
*Elastic
106000., 0.31
** ----------------------------------------------------------------
** 
** STEP: Step-1
** 
*Step, name=Step-1, nlgeom=NO
*Static
1., 1., 1e-05, 1.
** 
** OUTPUT REQUESTS
** 
*Restart, write, frequency=0
** 
** FIELD OUTPUT: F-Output-1
** 
*Output, field, variable=PRESELECT
** 
** HISTORY OUTPUT: H-Output-1
** 
*Output, history, variable=PRESELECT
*End Step
