*Heading
** Job name: AlcoaBracket_Size_4_0 Model name: AlcoaBracket_Size_4_0
** Generated by: Abaqus/CAE 2022
*Preprint, echo=NO, model=NO, history=NO, contact=NO
**
** PARTS
**
*Part, name=PART-1
*Node
      1,           0.,           0.,   4.95300007
      2,           0.,           0.,   14.0970001
      3,           0.,           0.,   11.9379997
      4,           0.,           0.,   7.11199999
      5,           0.,           0.,  -14.0970001
      6,           0.,           0.,  -4.95300007
      7,           0.,           0.,  -7.11199999
      8,           0.,           0.,  -11.9379997
      9,   36.8300018,           0.,   3.68300009
     10,   36.8300018,           0.,   12.8269997
     11,   36.8300018,           0.,   10.6680002
     12,   36.8300018,           0.,   5.84200001
     13,   36.8300018,           0.,  -12.8269997
     14,   36.8300018,           0.,  -3.68300009
     15,   36.8300018,           0.,  -5.84200001
     16,   36.8300018,           0.,  -10.6680002
     17,   36.8300018,   32.2082405,   3.68300009
     18,   36.8300018,   32.2082405,   12.8269997
     19,   36.8300018,   32.2082405,  -12.8269997
     20,   36.8300018,   32.2082405,  -3.68300009
** ... 4513 like lines cut
*Element, type=C3D4
    1, 2278, 2279, 2280, 2281
    2, 2278, 2282, 2283, 2284
    3, 2278, 2281, 2285, 2286
    4, 2287, 2288, 2289, 2290
    5, 2287, 2291, 2292, 2293
    6, 2287, 2290, 2289, 2291
    7, 2287, 2292, 2294, 2295
    8, 2296, 2287, 2290, 2297
    9, 2287, 2298, 2294, 2299
   10, 2300, 2301, 2297, 2302
   11, 2301, 2302, 2300, 2303
   12, 2301, 2294, 2304, 2305
   13, 2301, 2305, 2306, 2295
   14, 2301, 2295, 2297, 2294
   15, 2307,  349,  999, 1018
   16, 2301, 2308, 2309, 2297
   17, 2310, 2304, 2302, 2311
   18, 2312, 2313, 2314, 2315
   19, 2312, 2311, 2316, 2317
   20, 2312, 2313, 2318, 2310
** ... 20204 like lines cut
*Nset, nset=_PickedSet6, internal, generate
    1,  4533,     1
*Elset, elset=_PickedSet6, internal, generate
     1,  20224,      1
** Section: Section-1
*Solid Section, elset=_PickedSet6, material=Material-1
,
*End Part
**  
**
** ASSEMBLY
**
*Assembly, name=Assembly
**  
*Instance, name=PART-1-1, part=PART-1
*End Instance
**  
*Elset, elset=NonDesign, instance=PART-1-1
    32,    36,    38,    93,   116,   146,   160,   203,   212,   221,   226,   255,   274,   279,   284,   353
   364,   399,   433,   434,   451,   505,   511,   515,   554,   571,   573,   584,   590,   591,   611,   769
   773,   774,   841,   848,   855,   868,   871,   872,   874,   887,   898,   916,   920,   929,   930,   932
   952,   957,   972,   983,   995,   998,  1021,  1026,  1027,  1048,  1066,  1076,  1092,  1103,  1120,  1138
  1150,  1173,  1184,  1213,  1217,  1221,  1243,  1247,  1253,  1304,  1308,  1321,  1329,  1348,  1354,  1382
  1390,  1392,  1447,  1450,  1454,  1470,  1474,  1480,  1497,  1503,  1520,  1521,  1541,  1544,  1555,  1574
  1581,  1622,  1637,  1658,  1674,  1675,  1678,  1697,  1706,  1727,  1730,  1732,  1757,  1759,  1769,  1770
  1781,  1792,  1826,  1831,  1848,  1852,  1857,  1882,  1895,  1896,  1900,  1912,  1927,  1932,  1933,  1934
  1947,  1967,  1977,  1996,  2016,  2017,  2019,  2023,  2061,  2076,  2098,  2104,  2136,  2161,  2202,  2505
  2513,  2518,  2613,  2629,  2634,  2644,  2649,  2673,  2688,  2726,  2730,  2739,  2750,  2758,  2763,  2764
  2803,  2864,  2900,  2953,  2954,  2955,  2960,  2961,  2975,  2979,  2982,  2984,  2994,  3006,  3018,  3020
  3034,  3038,  3047,  3050,  3053,  3056,  3061,  3062,  3079,  3088,  3091,  3094,  3102,  3115,  3117,  3119
  3124,  3126,  3130,  3139,  3140,  3146,  3157,  3161,  3165,  3167,  3169,  3181,  3187,  3195,  3200,  3203
  3204,  3205,  3210,  3212,  3213,  3218,  3222,  3223,  3224,  3234,  3238,  3245,  3250,  3256,  3263,  4046
  4478,  4491,  4586,  5004,  5009,  5010,  5019,  5020,  5023,  5024,  5027,  5031,  5035,  5040,  5043,  5051
  5060,  5063,  5075,  5077,  5079,  5080,  5083,  5089,  5095,  5096,  5101,  5111,  5120,  5127,  5130,  5136
  5139,  5145,  5146,  5151,  5156,  5159,  5161,  5166,  5171,  5173,  5174,  5186,  5189,  5191,  5192,  5193
  5198,  5206,  5210,  5211,  5214,  5221,  5330,  5484,  5530,  5604,  5742,  5856,  5870,  6161,  6162,  6287
  6317,  7475,  7539,  7692,  7950,  7954,  7958,  7960,  7962,  7970,  7978,  8005,  8008,  8018,  8026,  8035
  8057,  8058,  8071,  8074,  8099,  8103,  8109,  8111,  8115,  8151,  8196,  8198,  8202,  8208,  8232,  8233
** ... 36 like lines cut
*End Assembly
** 
** MATERIALS
** 
*Material, name=Material-1
*Elastic
200000., 0.27
